----------------------------------------------------------
Initialized.
BEGIN Configuration File: /home/du335/simulator/Interconnect/logs_NoP/configs/chiplets_mesh_config
// $Id$

// Copyright (c) 2007-2015, Trustees of The Leland Stanford Junior University
// All rights reserved.
//
// Redistribution and use in source and binary forms, with or without
// modification, are permitted provided that the following conditions are met:
//
// Redistributions of source code must retain the above copyright notice, this
// list of conditions and the following disclaimer.
// Redistributions in binary form must reproduce the above copyright notice,
// this list of conditions and the following disclaimer in the documentation
// and/or other materials provided with the distribution.
//
// THIS SOFTWARE IS PROVIDED BY THE COPYRIGHT HOLDERS AND CONTRIBUTORS "AS IS"
// AND ANY EXPRESS OR IMPLIED WARRANTIES, INCLUDING, BUT NOT LIMITED TO, THE
// IMPLIED WARRANTIES OF MERCHANTABILITY AND FITNESS FOR A PARTICULAR PURPOSE
// ARE DISCLAIMED. IN NO EVENT SHALL THE COPYRIGHT OWNER OR CONTRIBUTORS BE
// LIABLE FOR ANY DIRECT, INDIRECT, INCIDENTAL, SPECIAL, EXEMPLARY, OR
// CONSEQUENTIAL DAMAGES (INCLUDING, BUT NOT LIMITED TO, PROCUREMENT OF
// SUBSTITUTE GOODS OR SERVICES; LOSS OF USE, DATA, OR PROFITS; OR BUSINESS
// INTERRUPTION) HOWEVER CAUSED AND ON ANY THEORY OF LIABILITY, WHETHER IN
// CONTRACT, STRICT LIABILITY, OR TORT (INCLUDING NEGLIGENCE OR OTHERWISE)
// ARISING IN ANY WAY OUT OF THE USE OF THIS SOFTWARE, EVEN IF ADVISED OF THE
// POSSIBILITY OF SUCH DAMAGE.

//8X8 mesh with 1 flits per packet under injection mode
//injection rate here is packet per cycle, NOT flit per cycle

// Topology

topology = mesh;
//k=16; //trace_based
k=2;
n=2;

// Routing
routing_function = dor;

in_ports = 5;
out_ports = 5;

// Custom Traffic
//traffic = custom;
//injection_process = custom;

// Trace-based Traffic
traffic = trace_based;
injection_process = trace_based;

// Constant delays
routing_delay = 1;
vc_alloc_delay = 1;
sw_alloc_delay = 1;
st_final_delay = 1;

packet_size = 1;


// Simulation
sim_type = latency;
sample_period = 100000;
warmup_periods = 0;
max_samples = 1;

injection_rate = 0.01;

num_vcs = 3;

buf_size = 10;
vc_buf_size = 10;
output_buffer_size = 1;

private_bufs = 1;
private_buf_size = 1;

sim_power = 1;

tech_file = techfile_nop.txt;

channel_width = 32;

//watch_flits = watch_flits.txt;
//watch_file = watch_file.txt;
//watch_out = watch_out.txt;

END Configuration File: /home/du335/simulator/Interconnect/logs_NoP/configs/chiplets_mesh_config
Trace is finished in 248 cycles
Class 0:
Packet latency average = 31
	minimum = 17
	maximum = 45
Network latency average = 23.3627
	minimum = 17
	maximum = 27
Slowest packet = 32
Flit latency average = 23.3627
	minimum = 17
	maximum = 27
Slowest flit = 32
Fragmentation average = 0
	minimum = 0
	maximum = 0
Injected packet rate average = 0.205645
	minimum = 0 (at node 1)
	maximum = 0.822581 (at node 0)
Accepted packet rate average = 0.205645
	minimum = 0 (at node 0)
	maximum = 0.822581 (at node 3)
Injected flit rate average = 0.205645
	minimum = 0 (at node 1)
	maximum = 0.822581 (at node 0)
Accepted flit rate average= 0.205645
	minimum = 0 (at node 0)
	maximum = 0.822581 (at node 3)
Injected packet length average = 1
Accepted packet length average = 1
Total in-flight flits = 0 (0 measured)
latency change    = 1
throughput change = 1
Too many sample periods needed to converge
Simulation unstable, ending ...
Total run time 2.27602
L = 1.5 K = 5.9 M = 1 N = 1
-----------------------------------------
- OCN Power Summary
- Completion Time:         248
- Flit Widths:            32
- Channel Wire Power:      0.330126
- Channel Clock Power:     0.180544
- Channel Retiming Power:  0.00560281
- Channel Leakage Power:   0.00623946
- Input Read Power:        0.405596
- Input Write Power:       0.405596
- Input Leakage Power:     0.0055296
- Switch Power:            0.597211
- Switch Control Power:    0.252615
- Switch Leakage Power:    0.200989
- Output DFF Power:        0.00420211
- Output Clk Power:        0.150453
- Output Control Power:    0.00770476
- Total Power:             2.55241
-----------------------------------------

-----------------------------------------
- OCN Area Summary
- Channel Area:  4.56607
- Switch  Area:  8.2944
- Input  Area:   18.6624
- Output  Area:  1.65888
- Total Area:    33.1817
-----------------------------------------
