----------------------------------------------------------
Initialized.
BEGIN Configuration File: /home/du335/simulator/Interconnect/logs/configs/chiplet_0_mesh_config
// $Id$

// Copyright (c) 2007-2015, Trustees of The Leland Stanford Junior University
// All rights reserved.
//
// Redistribution and use in source and binary forms, with or without
// modification, are permitted provided that the following conditions are met:
//
// Redistributions of source code must retain the above copyright notice, this
// list of conditions and the following disclaimer.
// Redistributions in binary form must reproduce the above copyright notice,
// this list of conditions and the following disclaimer in the documentation
// and/or other materials provided with the distribution.
//
// THIS SOFTWARE IS PROVIDED BY THE COPYRIGHT HOLDERS AND CONTRIBUTORS "AS IS"
// AND ANY EXPRESS OR IMPLIED WARRANTIES, INCLUDING, BUT NOT LIMITED TO, THE
// IMPLIED WARRANTIES OF MERCHANTABILITY AND FITNESS FOR A PARTICULAR PURPOSE
// ARE DISCLAIMED. IN NO EVENT SHALL THE COPYRIGHT OWNER OR CONTRIBUTORS BE
// LIABLE FOR ANY DIRECT, INDIRECT, INCIDENTAL, SPECIAL, EXEMPLARY, OR
// CONSEQUENTIAL DAMAGES (INCLUDING, BUT NOT LIMITED TO, PROCUREMENT OF
// SUBSTITUTE GOODS OR SERVICES; LOSS OF USE, DATA, OR PROFITS; OR BUSINESS
// INTERRUPTION) HOWEVER CAUSED AND ON ANY THEORY OF LIABILITY, WHETHER IN
// CONTRACT, STRICT LIABILITY, OR TORT (INCLUDING NEGLIGENCE OR OTHERWISE)
// ARISING IN ANY WAY OUT OF THE USE OF THIS SOFTWARE, EVEN IF ADVISED OF THE
// POSSIBILITY OF SUCH DAMAGE.

//8X8 mesh with 1 flits per packet under injection mode
//injection rate here is packet per cycle, NOT flit per cycle

// Topology

topology = mesh;
//k=16; //trace_based
k=6;
n=2;

// Routing
routing_function = dor;

in_ports = 5;
out_ports = 5;

// Custom Traffic
//traffic = custom;
//injection_process = custom;

// Trace-based Traffic
traffic = trace_based;
injection_process = trace_based;

// Constant delays
routing_delay = 1;
vc_alloc_delay = 1;
sw_alloc_delay = 1;
st_final_delay = 1;

packet_size = 1;


// Simulation
sim_type = latency;
sample_period = 100000;
warmup_periods = 0;
max_samples = 1;

injection_rate = 0.01;

num_vcs = 3;

buf_size = 10;
vc_buf_size = 10;
output_buffer_size = 1;

private_bufs = 1;
private_buf_size = 1;

sim_power = 1;

tech_file = techfile_40nm.txt;

channel_width = 32;

//watch_flits = watch_flits.txt;
//watch_file = watch_file.txt;
//watch_out = watch_out.txt;

END Configuration File: /home/du335/simulator/Interconnect/logs/configs/chiplet_0_mesh_config
Trace is finished in 44 cycles
Class 0:
Packet latency average = 35.6667
	minimum = 32
	maximum = 40
Network latency average = 35.6667
	minimum = 32
	maximum = 40
Slowest packet = 5
Flit latency average = 35.6667
	minimum = 32
	maximum = 40
Slowest flit = 5
Fragmentation average = 0
	minimum = 0
	maximum = 0
Injected packet rate average = 0.00378788
	minimum = 0 (at node 0)
	maximum = 0.0681818 (at node 28)
Accepted packet rate average = 0.00378788
	minimum = 0 (at node 0)
	maximum = 0.136364 (at node 30)
Injected flit rate average = 0.00378788
	minimum = 0 (at node 0)
	maximum = 0.0681818 (at node 28)
Accepted flit rate average= 0.00378788
	minimum = 0 (at node 0)
	maximum = 0.136364 (at node 30)
Injected packet length average = 1
Accepted packet length average = 1
Total in-flight flits = 0 (0 measured)
latency change    = 1
throughput change = 1
Too many sample periods needed to converge
Simulation unstable, ending ...
Total run time 0.0682979
L = 2.23607 K = 9.1 M = 2 N = 1
-----------------------------------------
- OCN Power Summary
- Completion Time:         44
- Flit Widths:            32
- Channel Wire Power:      0.313453
- Channel Clock Power:     0.462699
- Channel Retiming Power:  0.00348303
- Channel Leakage Power:   0.173224
- Input Read Power:        0.011291
- Input Write Power:       0.011291
- Input Leakage Power:     0.0497664
- Switch Power:            0.00992926
- Switch Control Power:    0.00495723
- Switch Leakage Power:    0.0988287
- Output DFF Power:        0.00150931
- Output Clk Power:        0.192791
- Output Control Power:    0.000816513
- Total Power:             1.33404
-----------------------------------------

-----------------------------------------
- OCN Area Summary
- Channel Area:  0.0737339
- Switch  Area:  0.0530842
- Input  Area:   0.119439
- Output  Area:  0.0106168
- Total Area:    0.256874
-----------------------------------------
