----------------------------------------------------------
Initialized.
BEGIN Configuration File: /home/du335/simulator/Interconnect/logs_NoP/configs/chiplets_mesh_config
// $Id$

// Copyright (c) 2007-2015, Trustees of The Leland Stanford Junior University
// All rights reserved.
//
// Redistribution and use in source and binary forms, with or without
// modification, are permitted provided that the following conditions are met:
//
// Redistributions of source code must retain the above copyright notice, this
// list of conditions and the following disclaimer.
// Redistributions in binary form must reproduce the above copyright notice,
// this list of conditions and the following disclaimer in the documentation
// and/or other materials provided with the distribution.
//
// THIS SOFTWARE IS PROVIDED BY THE COPYRIGHT HOLDERS AND CONTRIBUTORS "AS IS"
// AND ANY EXPRESS OR IMPLIED WARRANTIES, INCLUDING, BUT NOT LIMITED TO, THE
// IMPLIED WARRANTIES OF MERCHANTABILITY AND FITNESS FOR A PARTICULAR PURPOSE
// ARE DISCLAIMED. IN NO EVENT SHALL THE COPYRIGHT OWNER OR CONTRIBUTORS BE
// LIABLE FOR ANY DIRECT, INDIRECT, INCIDENTAL, SPECIAL, EXEMPLARY, OR
// CONSEQUENTIAL DAMAGES (INCLUDING, BUT NOT LIMITED TO, PROCUREMENT OF
// SUBSTITUTE GOODS OR SERVICES; LOSS OF USE, DATA, OR PROFITS; OR BUSINESS
// INTERRUPTION) HOWEVER CAUSED AND ON ANY THEORY OF LIABILITY, WHETHER IN
// CONTRACT, STRICT LIABILITY, OR TORT (INCLUDING NEGLIGENCE OR OTHERWISE)
// ARISING IN ANY WAY OUT OF THE USE OF THIS SOFTWARE, EVEN IF ADVISED OF THE
// POSSIBILITY OF SUCH DAMAGE.

//8X8 mesh with 1 flits per packet under injection mode
//injection rate here is packet per cycle, NOT flit per cycle

// Topology

topology = mesh;
//k=16; //trace_based
k=9;
n=2;

// Routing
routing_function = dor;

in_ports = 5;
out_ports = 5;

// Custom Traffic
//traffic = custom;
//injection_process = custom;

// Trace-based Traffic
traffic = trace_based;
injection_process = trace_based;

// Constant delays
routing_delay = 1;
vc_alloc_delay = 1;
sw_alloc_delay = 1;
st_final_delay = 1;

packet_size = 1;


// Simulation
sim_type = latency;
sample_period = 100000;
warmup_periods = 0;
max_samples = 1;

injection_rate = 0.01;

num_vcs = 3;

buf_size = 10;
vc_buf_size = 10;
output_buffer_size = 1;

private_bufs = 1;
private_buf_size = 1;

sim_power = 1;

tech_file = techfile_nop.txt;

channel_width = 32;

//watch_flits = watch_flits.txt;
//watch_file = watch_file.txt;
//watch_out = watch_out.txt;

END Configuration File: /home/du335/simulator/Interconnect/logs_NoP/configs/chiplets_mesh_config
Trace is finished in 76 cycles
Class 0:
Packet latency average = 46.5833
	minimum = 37
	maximum = 56
Network latency average = 46.5833
	minimum = 37
	maximum = 56
Slowest packet = 14
Flit latency average = 46.5833
	minimum = 37
	maximum = 56
Slowest flit = 14
Fragmentation average = 0
	minimum = 0
	maximum = 0
Injected packet rate average = 0.00389864
	minimum = 0 (at node 0)
	maximum = 0.315789 (at node 70)
Accepted packet rate average = 0.00389864
	minimum = 0 (at node 0)
	maximum = 0.157895 (at node 55)
Injected flit rate average = 0.00389864
	minimum = 0 (at node 0)
	maximum = 0.315789 (at node 70)
Accepted flit rate average= 0.00389864
	minimum = 0 (at node 0)
	maximum = 0.157895 (at node 55)
Injected packet length average = 1
Accepted packet length average = 1
Total in-flight flits = 0 (0 measured)
latency change    = 1
throughput change = 1
Too many sample periods needed to converge
Simulation unstable, ending ...
Total run time 0.286583
L = 1.5 K = 5.9 M = 1 N = 1
-----------------------------------------
- OCN Power Summary
- Completion Time:         76
- Flit Widths:            32
- Channel Wire Power:      0.269314
- Channel Clock Power:     3.65601
- Channel Retiming Power:  0.00457072
- Channel Leakage Power:   0.126349
- Input Read Power:        0.389271
- Input Write Power:       0.389271
- Input Leakage Power:     0.111974
- Switch Power:            0.4725
- Switch Control Power:    0.242447
- Switch Leakage Power:    4.07002
- Output DFF Power:        0.00403298
- Output Clk Power:        3.04668
- Output Control Power:    0.00739466
- Total Power:             12.7898
-----------------------------------------

-----------------------------------------
- OCN Area Summary
- Channel Area:  92.4629
- Switch  Area:  167.962
- Input  Area:   377.914
- Output  Area:  33.5923
- Total Area:    671.93
-----------------------------------------
